Version 4
SHEET 1 1400 680
WIRE 608 -208 528 -208
WIRE -256 -192 -336 -192
WIRE 528 -160 528 -208
WIRE -336 -144 -336 -192
WIRE 336 -112 304 -112
WIRE 448 -112 416 -112
WIRE 480 -112 448 -112
WIRE 608 -112 608 -208
WIRE 608 -112 576 -112
WIRE 704 -112 608 -112
WIRE -528 -96 -560 -96
WIRE -416 -96 -448 -96
WIRE -384 -96 -416 -96
WIRE -256 -96 -256 -192
WIRE -256 -96 -288 -96
WIRE -160 -96 -256 -96
WIRE 304 -80 304 -112
WIRE -560 -64 -560 -96
WIRE 448 -48 448 -112
WIRE 544 -48 448 -48
WIRE 704 -48 704 -112
WIRE 704 -48 608 -48
WIRE -416 -32 -416 -96
WIRE -320 -32 -416 -32
WIRE -160 -32 -160 -96
WIRE -160 -32 -256 -32
WIRE 448 32 448 -48
WIRE 544 32 448 32
WIRE 704 32 704 -48
WIRE 704 32 608 32
WIRE -416 48 -416 -32
WIRE -320 48 -416 48
WIRE -160 48 -160 -32
WIRE -160 48 -256 48
WIRE 448 144 448 32
WIRE 544 144 448 144
WIRE 704 144 704 32
WIRE 704 144 608 144
WIRE -416 160 -416 48
WIRE -320 160 -416 160
WIRE -160 160 -160 48
WIRE -160 160 -256 160
WIRE 864 240 528 240
WIRE 0 256 -336 256
WIRE 864 256 864 240
WIRE 0 272 0 256
WIRE 528 336 528 240
WIRE -336 352 -336 256
WIRE 448 352 448 144
WIRE 496 352 448 352
WIRE -416 368 -416 160
WIRE -368 368 -416 368
WIRE 704 368 704 144
WIRE 704 368 560 368
WIRE 864 368 864 336
WIRE 976 368 864 368
WIRE -160 384 -160 160
WIRE -160 384 -304 384
WIRE 0 384 0 352
WIRE 112 384 0 384
WIRE 496 384 288 384
WIRE 976 384 976 368
WIRE -368 400 -576 400
WIRE 112 400 112 384
WIRE 288 400 288 384
WIRE 864 400 864 368
WIRE -576 416 -576 400
WIRE 0 416 0 384
WIRE 528 496 528 400
WIRE 864 496 864 480
WIRE 864 496 528 496
WIRE -336 512 -336 416
WIRE 0 512 0 496
WIRE 0 512 -336 512
FLAG 976 384 0
FLAG 288 480 0
FLAG 304 -80 0
FLAG 704 368 OUT1
FLAG 112 400 0
FLAG -576 496 0
FLAG -560 -64 0
FLAG -160 384 OUT2
SYMBOL Voltage 864 240 R0
SYMATTR InstName V1
SYMATTR Value 12
SYMBOL Voltage 864 384 R0
SYMATTR InstName V2
SYMATTR Value 12
SYMBOL Voltage 288 384 R0
SYMATTR InstName V3
SYMATTR Value AC
SYMBOL pot 576 -96 M270
SYMATTR InstName X1
SYMATTR SpiceLine R=100k val=R
SYMBOL Res 432 -128 R90
WINDOW 0 0 56 VBottom 2
WINDOW 3 32 56 VTop 2
SYMATTR InstName R1
SYMATTR Value 68k
SYMBOL OpAmps/UniversalOpAmp2 528 368 R0
SYMATTR InstName U2
SYMBOL Voltage 0 256 R0
SYMATTR InstName V4
SYMATTR Value 12
SYMBOL Voltage 0 400 R0
SYMATTR InstName V5
SYMATTR Value 12
SYMBOL Voltage -576 400 R0
SYMATTR InstName V6
SYMATTR Value AC
SYMBOL pot -288 -80 M270
SYMATTR InstName X2
SYMATTR SpiceLine R=50k val=R
SYMBOL Res -432 -112 R90
WINDOW 0 0 56 VBottom 2
WINDOW 3 32 56 VTop 2
SYMATTR InstName R2
SYMATTR Value 33k
SYMBOL OpAmps/UniversalOpAmp2 -336 384 R0
SYMATTR InstName U1
SYMBOL diode -256 144 R90
WINDOW 0 0 32 VBottom 2
WINDOW 3 32 32 VTop 2
SYMATTR InstName D1
SYMATTR Value 1N4148
SYMBOL diode -320 32 M90
WINDOW 0 0 32 VBottom 2
WINDOW 3 32 32 VTop 2
SYMATTR InstName D2
SYMATTR Value 1N4148
SYMBOL diode 608 128 R90
WINDOW 0 0 32 VBottom 2
WINDOW 3 32 32 VTop 2
SYMATTR InstName D3
SYMATTR Value 1N4148
SYMBOL diode 544 16 M90
WINDOW 0 0 32 VBottom 2
WINDOW 3 32 32 VTop 2
SYMATTR InstName D4
SYMATTR Value 1N4148
SYMBOL Cap 608 -64 R90
WINDOW 0 0 32 VBottom 2
WINDOW 3 32 32 VTop 2
SYMATTR InstName C1
SYMATTR Value 1n
SYMBOL Cap -256 -48 R90
WINDOW 0 0 32 VBottom 2
WINDOW 3 32 32 VTop 2
SYMATTR InstName C2
SYMATTR Value 3n3
TEXT 1096 -8 Left 2 !.step param R 0 1 0.1\n.ac oct 10 10 10k
